tests/data/smart-ds/p1uhs10_1247/p1uhs10_1247--p1udt14394/Master.dss
Clear

New Circuit.feeder_p1udt14394-p1uhs10_1247x bus1=p1udt14394-p1uhs10_1247x pu=1.03 basekV=12.47 R1=1e-05 X1=1e-05 R0=1e-05 X0=1e-05

Redirect Transformers.dss
Redirect LoadShapes.dss
Redirect Loads.dss
Redirect LineCodes.dss
Redirect Lines.dss
Redirect Capacitors.dss 
New EnergyMeter.m1 element=Line.l(r:p1udt14394-p1uhs10_1247)

Set Voltagebases=[0.2080002494301389, 0.48, 7.199560000000001, 12.47]

Calcvoltagebases

Buscoords Buscoords.dss

Solve mode=yearly number=35136
!Moved energy meter from Line.l(r:p1udt38lv-p1ulv39) to Line.l(r:p1udt14394-p1uhs10_1247)